* NGSPICE file created from gf180mcu_as_sc_mcu7t3v3__and2_2.ext - technology: gf180mcuD

.subckt gf180mcu_as_sc_mcu7t3v3__and2_2 VDD VNW VPW VSS B A Y
X_M0 VDD B a_28_68# VNW pfet_03v3 ad=0.3588p pd=1.9u as=0.3588p ps=1.9u w=1.38u l=0.28u
X_M1 a_172_68# A a_28_68# VPW nfet_03v3 ad=0.26p pd=1.52u as=0.44p ps=2.88u w=1u l=0.28u
X_M2 Y a_28_68# VDD VNW pfet_03v3 ad=0.3588p pd=1.9u as=0.3588p ps=1.9u w=1.38u l=0.28u
X_M3 VSS a_28_68# Y VPW nfet_03v3 ad=0.52p pd=3.04u as=0.26p ps=1.52u w=1u l=0.28u
X_M4 VDD a_28_68# Y VNW pfet_03v3 ad=0.7176p pd=3.8u as=0.3588p ps=1.9u w=1.38u l=0.28u
X_M5 Y a_28_68# VSS VPW nfet_03v3 ad=0.26p pd=1.52u as=0.26p ps=1.52u w=1u l=0.28u
X_M6 a_28_68# A VDD VNW pfet_03v3 ad=0.3588p pd=1.9u as=0.6072p ps=3.64u w=1.38u l=0.28u
X_M7 VSS B a_172_68# VPW nfet_03v3 ad=0.26p pd=1.52u as=0.26p ps=1.52u w=1u l=0.28u
.ends

* NGSPICE file created from gf180mcu_as_sc_mcu7t3v3__and2_4.ext - technology: gf180mcuD

.subckt gf180mcu_as_sc_mcu7t3v3__and2_4 VDD VNW VPW VSS B A Y
X_M0 VSS a_28_68# Y VPW nfet_03v3 ad=0.6p pd=3.2u as=0.26p ps=1.52u w=1u l=0.28u
X_M1 VDD B a_28_68# VNW pfet_03v3 ad=0.3588p pd=1.9u as=0.3588p ps=1.9u w=1.38u l=0.28u
X_M2 Y a_28_68# VDD VNW pfet_03v3 ad=0.3588p pd=1.9u as=0.3588p ps=1.9u w=1.38u l=0.28u
X_M3 a_172_68# A a_28_68# VPW nfet_03v3 ad=0.26p pd=1.52u as=0.44p ps=2.88u w=1u l=0.28u
X_M4 Y a_28_68# VSS VPW nfet_03v3 ad=0.26p pd=1.52u as=0.26p ps=1.52u w=1u l=0.28u
X_M5 Y a_28_68# VDD VNW pfet_03v3 ad=0.3588p pd=1.9u as=0.3588p ps=1.9u w=1.38u l=0.28u
X_M6 VDD a_28_68# Y VNW pfet_03v3 ad=0.828p pd=3.96u as=0.3588p ps=1.9u w=1.38u l=0.28u
X_M7 VSS a_28_68# Y VPW nfet_03v3 ad=0.26p pd=1.52u as=0.26p ps=1.52u w=1u l=0.28u
X_M8 VDD a_28_68# Y VNW pfet_03v3 ad=0.3588p pd=1.9u as=0.3588p ps=1.9u w=1.38u l=0.28u
X_M9 Y a_28_68# VSS VPW nfet_03v3 ad=0.26p pd=1.52u as=0.26p ps=1.52u w=1u l=0.28u
X_M10 a_28_68# A VDD VNW pfet_03v3 ad=0.3588p pd=1.9u as=0.6072p ps=3.64u w=1.38u l=0.28u
X_M11 VSS B a_172_68# VPW nfet_03v3 ad=0.26p pd=1.52u as=0.26p ps=1.52u w=1u l=0.28u
.ends

* NGSPICE file created from gf180mcu_as_sc_mcu7t3v3__ao211_2.ext - technology: gf180mcuD

.subckt gf180mcu_as_sc_mcu7t3v3__ao211_2 VDD VNW VPW VSS A B C D Y
X_M0 a_28_440# B VDD VNW pfet_03v3 ad=0.3588p pd=1.9u as=0.3588p ps=1.9u w=1.38u l=0.28u
X_M1 a_172_68# A VSS VPW nfet_03v3 ad=0.26p pd=1.52u as=0.44p ps=2.88u w=1u l=0.28u
X_M2 VDD a_332_68# Y VNW pfet_03v3 ad=0.7176p pd=3.8u as=0.3588p ps=1.9u w=1.38u l=0.28u
X_M3 VSS a_332_68# Y VPW nfet_03v3 ad=0.52p pd=3.04u as=0.26p ps=1.52u w=1u l=0.28u
X_M4 a_492_440# C a_28_440# VNW pfet_03v3 ad=0.3588p pd=1.9u as=0.3588p ps=1.9u w=1.38u l=0.28u
X_M5 a_332_68# D VSS VPW nfet_03v3 ad=0.44p pd=2.88u as=0.26p ps=1.52u w=1u l=0.28u
X_M6 a_332_68# D a_492_440# VNW pfet_03v3 ad=0.6072p pd=3.64u as=0.3588p ps=1.9u w=1.38u l=0.28u
X_M7 Y a_332_68# VDD VNW pfet_03v3 ad=0.3588p pd=1.9u as=0.6072p ps=3.64u w=1.38u l=0.28u
X_M8 Y a_332_68# VSS VPW nfet_03v3 ad=0.26p pd=1.52u as=0.44p ps=2.88u w=1u l=0.28u
X_M9 VSS C a_332_68# VPW nfet_03v3 ad=0.26p pd=1.52u as=0.26p ps=1.52u w=1u l=0.28u
X_M10 VDD A a_28_440# VNW pfet_03v3 ad=0.3588p pd=1.9u as=0.6072p ps=3.64u w=1.38u l=0.28u
X_M11 a_332_68# B a_172_68# VPW nfet_03v3 ad=0.26p pd=1.52u as=0.26p ps=1.52u w=1u l=0.28u
.ends

* NGSPICE file created from gf180mcu_as_sc_mcu7t3v3__ao211_4.ext - technology: gf180mcuD

.subckt gf180mcu_as_sc_mcu7t3v3__ao211_4 VDD VNW VPW VSS A B C D Y
X_M0 a_28_440# B VDD VNW pfet_03v3 ad=0.3588p pd=1.9u as=0.3588p ps=1.9u w=1.38u l=0.28u
X_M1 Y a_332_68# VSS VPW nfet_03v3 ad=0.26p pd=1.52u as=0.26p ps=1.52u w=1u l=0.28u
X_M2 a_172_68# A VSS VPW nfet_03v3 ad=0.26p pd=1.52u as=0.44p ps=2.88u w=1u l=0.28u
X_M3 VDD a_332_68# Y VNW pfet_03v3 ad=0.3588p pd=1.9u as=0.3588p ps=1.9u w=1.38u l=0.28u
X_M4 VSS a_332_68# Y VPW nfet_03v3 ad=0.26p pd=1.52u as=0.26p ps=1.52u w=1u l=0.28u
X_M5 a_492_440# C a_28_440# VNW pfet_03v3 ad=0.3588p pd=1.9u as=0.3588p ps=1.9u w=1.38u l=0.28u
X_M6 a_332_68# D VSS VPW nfet_03v3 ad=0.44p pd=2.88u as=0.26p ps=1.52u w=1u l=0.28u
X_M7 Y a_332_68# VDD VNW pfet_03v3 ad=0.3588p pd=1.9u as=0.3588p ps=1.9u w=1.38u l=0.28u
X_M8 a_332_68# D a_492_440# VNW pfet_03v3 ad=0.6072p pd=3.64u as=0.3588p ps=1.9u w=1.38u l=0.28u
X_M9 Y a_332_68# VDD VNW pfet_03v3 ad=0.3588p pd=1.9u as=0.6072p ps=3.64u w=1.38u l=0.28u
X_M10 Y a_332_68# VSS VPW nfet_03v3 ad=0.26p pd=1.52u as=0.44p ps=2.88u w=1u l=0.28u
X_M11 VSS C a_332_68# VPW nfet_03v3 ad=0.26p pd=1.52u as=0.26p ps=1.52u w=1u l=0.28u
X_M12 VDD a_332_68# Y VNW pfet_03v3 ad=0.828p pd=3.96u as=0.3588p ps=1.9u w=1.38u l=0.28u
X_M13 VDD A a_28_440# VNW pfet_03v3 ad=0.3588p pd=1.9u as=0.6072p ps=3.64u w=1.38u l=0.28u
X_M14 VSS a_332_68# Y VPW nfet_03v3 ad=0.6p pd=3.2u as=0.26p ps=1.52u w=1u l=0.28u
X_M15 a_332_68# B a_172_68# VPW nfet_03v3 ad=0.26p pd=1.52u as=0.26p ps=1.52u w=1u l=0.28u
.ends

* NGSPICE file created from gf180mcu_as_sc_mcu7t3v3__ao21_2.ext - technology: gf180mcuD

.subckt gf180mcu_as_sc_mcu7t3v3__ao21_2 VDD VNW VPW VSS Y A B C
X_M0 VSS a_332_68# Y VPW nfet_03v3 ad=0.44p pd=2.88u as=0.3025p ps=1.605u w=1u l=0.28u
X_M1 a_28_440# B VDD VNW pfet_03v3 ad=0.3588p pd=1.9u as=0.3588p ps=1.9u w=1.38u l=0.28u
X_M2 a_172_68# A VSS VPW nfet_03v3 ad=0.26p pd=1.52u as=0.44p ps=2.88u w=1u l=0.28u
X_M3 a_332_68# C a_28_440# VNW pfet_03v3 ad=0.6072p pd=3.64u as=0.3588p ps=1.9u w=1.38u l=0.28u
X_M4 Y a_332_68# VDD VNW pfet_03v3 ad=0.41745p pd=1.985u as=0.6072p ps=3.64u w=1.38u l=0.28u
X_M5 VSS C a_332_68# VPW nfet_03v3 ad=0.58p pd=2.16u as=0.26p ps=1.52u w=1u l=0.28u
X_M6 Y a_332_68# VSS VPW nfet_03v3 ad=0.3025p pd=1.605u as=0.58p ps=2.16u w=1u l=0.28u
X_M7 VDD a_332_68# Y VNW pfet_03v3 ad=0.6072p pd=3.64u as=0.41745p ps=1.985u w=1.38u l=0.28u
X_M8 VDD A a_28_440# VNW pfet_03v3 ad=0.3588p pd=1.9u as=0.6072p ps=3.64u w=1.38u l=0.28u
X_M9 a_332_68# B a_172_68# VPW nfet_03v3 ad=0.26p pd=1.52u as=0.26p ps=1.52u w=1u l=0.28u
.ends

* NGSPICE file created from gf180mcu_as_sc_mcu7t3v3__ao21_4.ext - technology: gf180mcuD

.subckt gf180mcu_as_sc_mcu7t3v3__ao21_4 VDD VNW VPW VSS Y A B C
X_M0 VSS a_332_68# Y VPW nfet_03v3 ad=0.26p pd=1.52u as=0.3025p ps=1.605u w=1u l=0.28u
X_M1 a_28_440# B VDD VNW pfet_03v3 ad=0.3588p pd=1.9u as=0.3588p ps=1.9u w=1.38u l=0.28u
X_M2 Y a_332_68# VDD VNW pfet_03v3 ad=0.3588p pd=1.9u as=0.3588p ps=1.9u w=1.38u l=0.28u
X_M3 a_172_68# A VSS VPW nfet_03v3 ad=0.26p pd=1.52u as=0.44p ps=2.88u w=1u l=0.28u
X_M4 a_332_68# C a_28_440# VNW pfet_03v3 ad=0.6072p pd=3.64u as=0.3588p ps=1.9u w=1.38u l=0.28u
X_M5 Y a_332_68# VDD VNW pfet_03v3 ad=0.41745p pd=1.985u as=0.6072p ps=3.64u w=1.38u l=0.28u
X_M6 VDD a_332_68# Y VNW pfet_03v3 ad=0.6279p pd=3.67u as=0.3588p ps=1.9u w=1.38u l=0.28u
X_M7 VSS a_332_68# Y VPW nfet_03v3 ad=0.455p pd=2.91u as=0.26p ps=1.52u w=1u l=0.28u
X_M8 VSS C a_332_68# VPW nfet_03v3 ad=0.58p pd=2.16u as=0.26p ps=1.52u w=1u l=0.28u
X_M9 Y a_332_68# VSS VPW nfet_03v3 ad=0.26p pd=1.52u as=0.26p ps=1.52u w=1u l=0.28u
X_M10 Y a_332_68# VSS VPW nfet_03v3 ad=0.3025p pd=1.605u as=0.58p ps=2.16u w=1u l=0.28u
X_M11 VDD a_332_68# Y VNW pfet_03v3 ad=0.3588p pd=1.9u as=0.41745p ps=1.985u w=1.38u l=0.28u
X_M12 VDD A a_28_440# VNW pfet_03v3 ad=0.3588p pd=1.9u as=0.6072p ps=3.64u w=1.38u l=0.28u
X_M13 a_332_68# B a_172_68# VPW nfet_03v3 ad=0.26p pd=1.52u as=0.26p ps=1.52u w=1u l=0.28u
.ends

* NGSPICE file created from gf180mcu_as_sc_mcu7t3v3__ao21b_2.ext - technology: gf180mcuD

.subckt gf180mcu_as_sc_mcu7t3v3__ao21b_2 VDD VNW VPW VSS Y C B A
X_M0 a_364_440# C a_668_68# VNW pfet_03v3 ad=0.6072p pd=3.64u as=0.3588p ps=1.9u w=1.38u l=0.28u
X_M1 Y a_668_68# VDD VNW pfet_03v3 ad=0.3588p pd=1.9u as=0.6072p ps=3.64u w=1.38u l=0.28u
X_M2 VSS a_668_68# Y VPW nfet_03v3 ad=0.45p pd=2.9u as=0.26p ps=1.52u w=1u l=0.28u
X_M3 a_668_68# B a_508_68# VPW nfet_03v3 ad=0.26p pd=1.52u as=0.26p ps=1.52u w=1u l=0.28u
X_M4 VSS C a_668_68# VPW nfet_03v3 ad=0.58p pd=2.16u as=0.26p ps=1.52u w=1u l=0.28u
X_M5 a_220_68# A VSS VPW nfet_03v3 ad=0.44p pd=2.88u as=0.47p ps=2.94u w=1u l=0.28u
X_M6 Y a_668_68# VSS VPW nfet_03v3 ad=0.26p pd=1.52u as=0.58p ps=2.16u w=1u l=0.28u
X_M7 a_508_68# a_220_68# VSS VPW nfet_03v3 ad=0.26p pd=1.52u as=0.44p ps=2.88u w=1u l=0.28u
X_M8 a_220_68# A VDD VNW pfet_03v3 ad=0.6072p pd=3.64u as=0.6348p ps=3.68u w=1.38u l=0.28u
X_M9 VDD a_220_68# a_364_440# VNW pfet_03v3 ad=0.3588p pd=1.9u as=0.6072p ps=3.64u w=1.38u l=0.28u
X_M10 a_364_440# a_220_68# VDD VNW pfet_03v3 ad=0.3588p pd=1.9u as=0.3588p ps=1.9u w=1.38u l=0.28u
X_M11 a_668_68# C VSS VPW nfet_03v3 ad=0.26p pd=1.52u as=0.26p ps=1.52u w=1u l=0.28u
X_M12 VDD a_668_68# Y VNW pfet_03v3 ad=0.621p pd=3.66u as=0.3588p ps=1.9u w=1.38u l=0.28u
X_M13 a_668_68# C a_364_440# VNW pfet_03v3 ad=0.3588p pd=1.9u as=0.3588p ps=1.9u w=1.38u l=0.28u
X_M14 VSS a_220_68# a_828_68# VPW nfet_03v3 ad=0.26p pd=1.52u as=0.26p ps=1.52u w=1u l=0.28u
X_M15 a_364_440# B VDD VNW pfet_03v3 ad=0.3588p pd=1.9u as=0.3588p ps=1.9u w=1.38u l=0.28u
X_M16 a_828_68# B a_668_68# VPW nfet_03v3 ad=0.26p pd=1.52u as=0.26p ps=1.52u w=1u l=0.28u
X_M17 VDD B a_364_440# VNW pfet_03v3 ad=0.3588p pd=1.9u as=0.3588p ps=1.9u w=1.38u l=0.28u
.ends

* NGSPICE file created from gf180mcu_as_sc_mcu7t3v3__ao21b_4.ext - technology: gf180mcuD

.subckt gf180mcu_as_sc_mcu7t3v3__ao21b_4 VDD VNW VPW VSS Y C B A
X_M0 a_364_440# C a_668_68# VNW pfet_03v3 ad=0.6072p pd=3.64u as=0.3588p ps=1.9u w=1.38u l=0.28u
X_M1 Y a_668_68# VDD VNW pfet_03v3 ad=0.3588p pd=1.9u as=0.6072p ps=3.64u w=1.38u l=0.28u
X_M2 VSS a_668_68# Y VPW nfet_03v3 ad=0.26p pd=1.52u as=0.26p ps=1.52u w=1u l=0.28u
X_M3 a_668_68# B a_508_68# VPW nfet_03v3 ad=0.26p pd=1.52u as=0.26p ps=1.52u w=1u l=0.28u
X_M4 VSS C a_668_68# VPW nfet_03v3 ad=0.58p pd=2.16u as=0.26p ps=1.52u w=1u l=0.28u
X_M5 a_220_68# A VSS VPW nfet_03v3 ad=0.44p pd=2.88u as=0.47p ps=2.94u w=1u l=0.28u
X_M6 Y a_668_68# VSS VPW nfet_03v3 ad=0.26p pd=1.52u as=0.58p ps=2.16u w=1u l=0.28u
X_M7 a_508_68# a_220_68# VSS VPW nfet_03v3 ad=0.26p pd=1.52u as=0.44p ps=2.88u w=1u l=0.28u
X_M8 a_220_68# A VDD VNW pfet_03v3 ad=0.6072p pd=3.64u as=0.6348p ps=3.68u w=1.38u l=0.28u
X_M9 VDD a_220_68# a_364_440# VNW pfet_03v3 ad=0.3588p pd=1.9u as=0.6072p ps=3.64u w=1.38u l=0.28u
X_M10 a_364_440# a_220_68# VDD VNW pfet_03v3 ad=0.3588p pd=1.9u as=0.3588p ps=1.9u w=1.38u l=0.28u
X_M11 a_668_68# C VSS VPW nfet_03v3 ad=0.26p pd=1.52u as=0.26p ps=1.52u w=1u l=0.28u
X_M12 VDD a_668_68# Y VNW pfet_03v3 ad=0.3588p pd=1.9u as=0.3588p ps=1.9u w=1.38u l=0.28u
X_M13 a_668_68# C a_364_440# VNW pfet_03v3 ad=0.3588p pd=1.9u as=0.3588p ps=1.9u w=1.38u l=0.28u
X_M14 Y a_668_68# VDD VNW pfet_03v3 ad=0.3588p pd=1.9u as=0.3588p ps=1.9u w=1.38u l=0.28u
X_M15 VSS a_220_68# a_828_68# VPW nfet_03v3 ad=0.26p pd=1.52u as=0.26p ps=1.52u w=1u l=0.28u
X_M16 a_364_440# B VDD VNW pfet_03v3 ad=0.3588p pd=1.9u as=0.3588p ps=1.9u w=1.38u l=0.28u
X_M17 VDD a_668_68# Y VNW pfet_03v3 ad=0.7314p pd=3.82u as=0.3588p ps=1.9u w=1.38u l=0.28u
X_M18 Y a_668_68# VSS VPW nfet_03v3 ad=0.26p pd=1.52u as=0.26p ps=1.52u w=1u l=0.28u
X_M19 a_828_68# B a_668_68# VPW nfet_03v3 ad=0.26p pd=1.52u as=0.26p ps=1.52u w=1u l=0.28u
X_M20 VSS a_668_68# Y VPW nfet_03v3 ad=0.53p pd=3.06u as=0.26p ps=1.52u w=1u l=0.28u
X_M21 VDD B a_364_440# VNW pfet_03v3 ad=0.3588p pd=1.9u as=0.3588p ps=1.9u w=1.38u l=0.28u
.ends

* NGSPICE file created from gf180mcu_as_sc_mcu7t3v3__ao22_2.ext - technology: gf180mcuD

.subckt gf180mcu_as_sc_mcu7t3v3__ao22_2 VDD VNW VPW VSS A B C D Y
X_M0 a_620_68# C a_28_440# VPW nfet_03v3 ad=0.26p pd=1.52u as=0.44p ps=2.88u w=1u l=0.28u
X_M1 a_28_440# B a_172_440# VNW pfet_03v3 ad=0.6072p pd=3.64u as=0.3588p ps=1.9u w=1.38u l=0.28u
X_M2 a_172_440# C VDD VNW pfet_03v3 ad=0.3588p pd=1.9u as=0.6072p ps=3.64u w=1.38u l=0.28u
X_M3 a_172_68# A VSS VPW nfet_03v3 ad=0.26p pd=1.52u as=0.44p ps=2.88u w=1u l=0.28u
X_M4 VDD a_28_440# Y VNW pfet_03v3 ad=0.7176p pd=3.8u as=0.3588p ps=1.9u w=1.38u l=0.28u
X_M5 VSS a_28_440# Y VPW nfet_03v3 ad=0.52p pd=3.04u as=0.26p ps=1.52u w=1u l=0.28u
X_M6 VDD D a_172_440# VNW pfet_03v3 ad=0.3588p pd=1.9u as=0.3588p ps=1.9u w=1.38u l=0.28u
X_M7 Y a_28_440# VDD VNW pfet_03v3 ad=0.3588p pd=1.9u as=0.3588p ps=1.9u w=1.38u l=0.28u
X_M8 Y a_28_440# VSS VPW nfet_03v3 ad=0.26p pd=1.52u as=0.26p ps=1.52u w=1u l=0.28u
X_M9 VSS D a_620_68# VPW nfet_03v3 ad=0.26p pd=1.52u as=0.26p ps=1.52u w=1u l=0.28u
X_M10 a_172_440# A a_28_440# VNW pfet_03v3 ad=0.3588p pd=1.9u as=0.6072p ps=3.64u w=1.38u l=0.28u
X_M11 a_28_440# B a_172_68# VPW nfet_03v3 ad=0.44p pd=2.88u as=0.26p ps=1.52u w=1u l=0.28u
.ends

* NGSPICE file created from gf180mcu_as_sc_mcu7t3v3__ao22_4.ext - technology: gf180mcuD

.subckt gf180mcu_as_sc_mcu7t3v3__ao22_4 VDD VNW VPW VSS A B C D Y
X_M0 a_620_68# C a_28_440# VPW nfet_03v3 ad=0.26p pd=1.52u as=0.44p ps=2.88u w=1u l=0.28u
X_M1 a_28_440# B a_172_440# VNW pfet_03v3 ad=0.6072p pd=3.64u as=0.3588p ps=1.9u w=1.38u l=0.28u
X_M2 a_172_440# C VDD VNW pfet_03v3 ad=0.3588p pd=1.9u as=0.6072p ps=3.64u w=1.38u l=0.28u
X_M3 Y a_28_440# VSS VPW nfet_03v3 ad=0.26p pd=1.52u as=0.26p ps=1.52u w=1u l=0.28u
X_M4 a_172_68# A VSS VPW nfet_03v3 ad=0.26p pd=1.52u as=0.44p ps=2.88u w=1u l=0.28u
X_M5 VDD a_28_440# Y VNW pfet_03v3 ad=0.3588p pd=1.9u as=0.3588p ps=1.9u w=1.38u l=0.28u
X_M6 VSS a_28_440# Y VPW nfet_03v3 ad=0.26p pd=1.52u as=0.26p ps=1.52u w=1u l=0.28u
X_M7 VDD D a_172_440# VNW pfet_03v3 ad=0.3588p pd=1.9u as=0.3588p ps=1.9u w=1.38u l=0.28u
X_M8 Y a_28_440# VDD VNW pfet_03v3 ad=0.3588p pd=1.9u as=0.3588p ps=1.9u w=1.38u l=0.28u
X_M9 Y a_28_440# VDD VNW pfet_03v3 ad=0.3588p pd=1.9u as=0.3588p ps=1.9u w=1.38u l=0.28u
X_M10 Y a_28_440# VSS VPW nfet_03v3 ad=0.26p pd=1.52u as=0.26p ps=1.52u w=1u l=0.28u
X_M11 VDD a_28_440# Y VNW pfet_03v3 ad=0.6072p pd=3.64u as=0.3588p ps=1.9u w=1.38u l=0.28u
X_M12 VSS D a_620_68# VPW nfet_03v3 ad=0.26p pd=1.52u as=0.26p ps=1.52u w=1u l=0.28u
X_M13 a_172_440# A a_28_440# VNW pfet_03v3 ad=0.3588p pd=1.9u as=0.6072p ps=3.64u w=1.38u l=0.28u
X_M14 VSS a_28_440# Y VPW nfet_03v3 ad=0.44p pd=2.88u as=0.26p ps=1.52u w=1u l=0.28u
X_M15 a_28_440# B a_172_68# VPW nfet_03v3 ad=0.44p pd=2.88u as=0.26p ps=1.52u w=1u l=0.28u
.ends

* NGSPICE file created from gf180mcu_as_sc_mcu7t3v3__ao31_2.ext - technology: gf180mcuD

.subckt gf180mcu_as_sc_mcu7t3v3__ao31_2 VDD VNW VPW VSS D A B C Y
X_M0 VSS a_28_440# Y VPW nfet_03v3 ad=0.44p pd=2.88u as=0.26p ps=1.52u w=1u l=0.28u
X_M1 VDD A a_172_440# VNW pfet_03v3 ad=0.3588p pd=1.9u as=0.3588p ps=1.9u w=1.38u l=0.28u
X_M2 Y a_28_440# VDD VNW pfet_03v3 ad=0.3588p pd=1.9u as=0.3588p ps=1.9u w=1.38u l=0.28u
X_M3 a_28_440# D VSS VPW nfet_03v3 ad=0.26p pd=1.52u as=0.44p ps=2.88u w=1u l=0.28u
X_M4 Y a_28_440# VSS VPW nfet_03v3 ad=0.26p pd=1.52u as=0.26p ps=1.52u w=1u l=0.28u
X_M5 a_172_440# B VDD VNW pfet_03v3 ad=0.3588p pd=1.9u as=0.3588p ps=1.9u w=1.38u l=0.28u
X_M6 VDD a_28_440# Y VNW pfet_03v3 ad=0.6072p pd=3.64u as=0.3588p ps=1.9u w=1.38u l=0.28u
X_M7 VSS C a_492_68# VPW nfet_03v3 ad=0.26p pd=1.52u as=0.26p ps=1.52u w=1u l=0.28u
X_M8 VDD C a_172_440# VNW pfet_03v3 ad=0.3588p pd=1.9u as=0.3588p ps=1.9u w=1.38u l=0.28u
X_M9 a_492_68# B a_332_68# VPW nfet_03v3 ad=0.26p pd=1.52u as=0.26p ps=1.52u w=1u l=0.28u
X_M10 a_172_440# D a_28_440# VNW pfet_03v3 ad=0.3588p pd=1.9u as=0.6072p ps=3.64u w=1.38u l=0.28u
X_M11 a_332_68# A a_28_440# VPW nfet_03v3 ad=0.26p pd=1.52u as=0.26p ps=1.52u w=1u l=0.28u
.ends

* NGSPICE file created from gf180mcu_as_sc_mcu7t3v3__ao31_4.ext - technology: gf180mcuD

.subckt gf180mcu_as_sc_mcu7t3v3__ao31_4 VDD VNW VPW VSS D A B C Y
X_M0 VSS a_28_440# Y VPW nfet_03v3 ad=0.26p pd=1.52u as=0.26p ps=1.52u w=1u l=0.28u
X_M1 VDD A a_172_440# VNW pfet_03v3 ad=0.3588p pd=1.9u as=0.3588p ps=1.9u w=1.38u l=0.28u
X_M2 Y a_28_440# VDD VNW pfet_03v3 ad=0.3588p pd=1.9u as=0.3588p ps=1.9u w=1.38u l=0.28u
X_M3 a_28_440# D VSS VPW nfet_03v3 ad=0.26p pd=1.52u as=0.44p ps=2.88u w=1u l=0.28u
X_M4 VDD a_28_440# Y VNW pfet_03v3 ad=0.6072p pd=3.64u as=0.3588p ps=1.9u w=1.38u l=0.28u
X_M5 Y a_28_440# VSS VPW nfet_03v3 ad=0.26p pd=1.52u as=0.26p ps=1.52u w=1u l=0.28u
X_M6 a_172_440# B VDD VNW pfet_03v3 ad=0.3588p pd=1.9u as=0.3588p ps=1.9u w=1.38u l=0.28u
X_M7 VDD a_28_440# Y VNW pfet_03v3 ad=0.3588p pd=1.9u as=0.3588p ps=1.9u w=1.38u l=0.28u
X_M8 VSS C a_492_68# VPW nfet_03v3 ad=0.26p pd=1.52u as=0.26p ps=1.52u w=1u l=0.28u
X_M9 VSS a_28_440# Y VPW nfet_03v3 ad=0.44p pd=2.88u as=0.26p ps=1.52u w=1u l=0.28u
X_M10 VDD C a_172_440# VNW pfet_03v3 ad=0.3588p pd=1.9u as=0.3588p ps=1.9u w=1.38u l=0.28u
X_M11 a_492_68# B a_332_68# VPW nfet_03v3 ad=0.26p pd=1.52u as=0.26p ps=1.52u w=1u l=0.28u
X_M12 Y a_28_440# VDD VNW pfet_03v3 ad=0.3588p pd=1.9u as=0.3588p ps=1.9u w=1.38u l=0.28u
X_M13 Y a_28_440# VSS VPW nfet_03v3 ad=0.26p pd=1.52u as=0.26p ps=1.52u w=1u l=0.28u
X_M14 a_172_440# D a_28_440# VNW pfet_03v3 ad=0.3588p pd=1.9u as=0.6072p ps=3.64u w=1.38u l=0.28u
X_M15 a_332_68# A a_28_440# VPW nfet_03v3 ad=0.26p pd=1.52u as=0.26p ps=1.52u w=1u l=0.28u
.ends

* NGSPICE file created from gf180mcu_as_sc_mcu7t3v3__aoi211_2.ext - technology: gf180mcuD

.subckt gf180mcu_as_sc_mcu7t3v3__aoi211_2 VDD VNW VPW VSS A B C Y D
X_M0 VDD A a_172_440# VNW pfet_03v3 ad=0.3588p pd=1.9u as=0.3588p ps=1.9u w=1.38u l=0.28u
X_M1 Y D VSS VPW nfet_03v3 ad=0.26p pd=1.52u as=0.26p ps=1.52u w=1u l=0.28u
X_M2 VSS A a_28_68# VPW nfet_03v3 ad=0.26p pd=1.52u as=0.44p ps=2.88u w=1u l=0.28u
X_M3 a_796_440# C a_172_440# VNW pfet_03v3 ad=0.3588p pd=1.9u as=0.3588p ps=1.9u w=1.38u l=0.28u
X_M4 VSS C Y VPW nfet_03v3 ad=0.26p pd=1.52u as=0.26p ps=1.52u w=1u l=0.28u
X_M5 a_172_440# B VDD VNW pfet_03v3 ad=0.3588p pd=1.9u as=0.3588p ps=1.9u w=1.38u l=0.28u
X_M6 a_28_68# B Y VPW nfet_03v3 ad=0.44p pd=2.88u as=0.26p ps=1.52u w=1u l=0.28u
X_M7 Y D a_796_440# VNW pfet_03v3 ad=0.3588p pd=1.9u as=0.3588p ps=1.9u w=1.38u l=0.28u
X_M8 VDD B a_172_440# VNW pfet_03v3 ad=0.6072p pd=3.64u as=0.3588p ps=1.9u w=1.38u l=0.28u
X_M9 a_172_440# C a_796_440# VNW pfet_03v3 ad=0.3588p pd=1.9u as=0.6072p ps=3.64u w=1.38u l=0.28u
X_M10 Y C VSS VPW nfet_03v3 ad=0.26p pd=1.52u as=0.44p ps=2.88u w=1u l=0.28u
X_M11 Y B a_28_68# VPW nfet_03v3 ad=0.26p pd=1.52u as=0.26p ps=1.52u w=1u l=0.28u
X_M12 a_796_440# D Y VNW pfet_03v3 ad=0.6417p pd=3.69u as=0.3588p ps=1.9u w=1.38u l=0.28u
X_M13 a_172_440# A VDD VNW pfet_03v3 ad=0.3588p pd=1.9u as=0.6072p ps=3.64u w=1.38u l=0.28u
X_M14 VSS D Y VPW nfet_03v3 ad=0.465p pd=2.93u as=0.26p ps=1.52u w=1u l=0.28u
X_M15 a_28_68# A VSS VPW nfet_03v3 ad=0.26p pd=1.52u as=0.26p ps=1.52u w=1u l=0.28u
.ends

* NGSPICE file created from gf180mcu_as_sc_mcu7t3v3__aoi211_4.ext - technology: gf180mcuD

.subckt gf180mcu_as_sc_mcu7t3v3__aoi211_4 VDD VNW VPW VSS A B C D Y
X_M0 Y B a_172_68# VPW nfet_03v3 ad=0.26p pd=1.52u as=0.26p ps=1.52u w=1u l=0.28u
X_M1 a_28_440# A VDD VNW pfet_03v3 ad=0.3588p pd=1.9u as=0.3588p ps=1.9u w=1.38u l=0.28u
X_M2 VDD B a_28_440# VNW pfet_03v3 ad=0.3588p pd=1.9u as=0.3588p ps=1.9u w=1.38u l=0.28u
X_M3 a_172_68# A VSS VPW nfet_03v3 ad=0.26p pd=1.52u as=0.44p ps=2.88u w=1u l=0.28u
X_M4 a_2412_440# D Y VNW pfet_03v3 ad=0.3588p pd=1.9u as=0.3588p ps=1.9u w=1.38u l=0.28u
X_M5 VSS C Y VPW nfet_03v3 ad=0.26p pd=1.52u as=0.26p ps=1.52u w=1u l=0.28u
X_M6 VSS C Y VPW nfet_03v3 ad=0.44p pd=2.88u as=0.26p ps=1.52u w=1u l=0.28u
X_M7 a_28_440# A VDD VNW pfet_03v3 ad=0.3588p pd=1.9u as=0.3588p ps=1.9u w=1.38u l=0.28u
X_M8 a_1772_440# C a_28_440# VNW pfet_03v3 ad=0.3588p pd=1.9u as=0.3588p ps=1.9u w=1.38u l=0.28u
X_M9 a_172_68# B Y VPW nfet_03v3 ad=0.26p pd=1.52u as=0.26p ps=1.52u w=1u l=0.28u
X_M10 a_1452_440# C a_28_440# VNW pfet_03v3 ad=0.3588p pd=1.9u as=0.3588p ps=1.9u w=1.38u l=0.28u
X_M11 Y D a_1772_440# VNW pfet_03v3 ad=0.3588p pd=1.9u as=0.3588p ps=1.9u w=1.38u l=0.28u
X_M12 Y C VSS VPW nfet_03v3 ad=0.26p pd=1.52u as=0.26p ps=1.52u w=1u l=0.28u
X_M13 Y D VSS VPW nfet_03v3 ad=0.26p pd=1.52u as=0.26p ps=1.52u w=1u l=0.28u
X_M14 VDD A a_28_440# VNW pfet_03v3 ad=0.3588p pd=1.9u as=0.3588p ps=1.9u w=1.38u l=0.28u
X_M15 a_28_440# B VDD VNW pfet_03v3 ad=0.3588p pd=1.9u as=0.3588p ps=1.9u w=1.38u l=0.28u
X_M16 Y B a_172_68# VPW nfet_03v3 ad=0.26p pd=1.52u as=0.26p ps=1.52u w=1u l=0.28u
X_M17 a_1452_440# D Y VNW pfet_03v3 ad=0.3588p pd=1.9u as=0.3588p ps=1.9u w=1.38u l=0.28u
X_M18 a_28_440# C a_2412_440# VNW pfet_03v3 ad=0.6072p pd=3.64u as=0.3588p ps=1.9u w=1.38u l=0.28u
X_M19 VSS A a_172_68# VPW nfet_03v3 ad=0.26p pd=1.52u as=0.26p ps=1.52u w=1u l=0.28u
X_M20 VSS D Y VPW nfet_03v3 ad=0.26p pd=1.52u as=0.26p ps=1.52u w=1u l=0.28u
X_M21 a_28_440# B VDD VNW pfet_03v3 ad=0.3588p pd=1.9u as=0.3588p ps=1.9u w=1.38u l=0.28u
X_M22 Y D a_1452_440# VNW pfet_03v3 ad=0.3588p pd=1.9u as=0.3588p ps=1.9u w=1.38u l=0.28u
X_M23 a_172_68# A VSS VPW nfet_03v3 ad=0.26p pd=1.52u as=0.26p ps=1.52u w=1u l=0.28u
X_M24 VSS D Y VPW nfet_03v3 ad=0.26p pd=1.52u as=0.26p ps=1.52u w=1u l=0.28u
X_M25 VDD B a_28_440# VNW pfet_03v3 ad=0.3588p pd=1.9u as=0.3588p ps=1.9u w=1.38u l=0.28u
X_M26 a_28_440# C a_1452_440# VNW pfet_03v3 ad=0.3588p pd=1.9u as=0.3588p ps=1.9u w=1.38u l=0.28u
X_M27 a_172_68# B Y VPW nfet_03v3 ad=0.26p pd=1.52u as=0.26p ps=1.52u w=1u l=0.28u
X_M28 Y D VSS VPW nfet_03v3 ad=0.26p pd=1.52u as=0.26p ps=1.52u w=1u l=0.28u
X_M29 VDD A a_28_440# VNW pfet_03v3 ad=0.3588p pd=1.9u as=0.6072p ps=3.64u w=1.38u l=0.28u
X_M30 VSS A a_172_68# VPW nfet_03v3 ad=0.26p pd=1.52u as=0.26p ps=1.52u w=1u l=0.28u
X_M31 Y C VSS VPW nfet_03v3 ad=0.26p pd=1.52u as=0.26p ps=1.52u w=1u l=0.28u
.ends

* NGSPICE file created from gf180mcu_as_sc_mcu7t3v3__aoi21_2.ext - technology: gf180mcuD

.subckt gf180mcu_as_sc_mcu7t3v3__aoi21_2 VDD VNW VPW VSS Y C B A
X_M0 VSS C Y VPW nfet_03v3 ad=0.45p pd=2.9u as=0.26p ps=1.52u w=1u l=0.28u
X_M1 a_28_440# B VDD VNW pfet_03v3 ad=0.3588p pd=1.9u as=0.3588p ps=1.9u w=1.38u l=0.28u
X_M2 Y C a_28_440# VNW pfet_03v3 ad=0.3588p pd=1.9u as=0.3588p ps=1.9u w=1.38u l=0.28u
X_M3 a_172_68# A VSS VPW nfet_03v3 ad=0.26p pd=1.52u as=0.44p ps=2.88u w=1u l=0.28u
X_M4 Y C VSS VPW nfet_03v3 ad=0.26p pd=1.52u as=0.26p ps=1.52u w=1u l=0.28u
X_M5 VDD B a_28_440# VNW pfet_03v3 ad=0.3588p pd=1.9u as=0.3588p ps=1.9u w=1.38u l=0.28u
X_M6 a_28_440# C Y VNW pfet_03v3 ad=0.621p pd=3.66u as=0.3588p ps=1.9u w=1.38u l=0.28u
X_M7 VSS A a_492_68# VPW nfet_03v3 ad=0.26p pd=1.52u as=0.26p ps=1.52u w=1u l=0.28u
X_M8 a_28_440# A VDD VNW pfet_03v3 ad=0.3588p pd=1.9u as=0.3588p ps=1.9u w=1.38u l=0.28u
X_M9 a_492_68# B Y VPW nfet_03v3 ad=0.26p pd=1.52u as=0.26p ps=1.52u w=1u l=0.28u
X_M10 VDD A a_28_440# VNW pfet_03v3 ad=0.3588p pd=1.9u as=0.6072p ps=3.64u w=1.38u l=0.28u
X_M11 Y B a_172_68# VPW nfet_03v3 ad=0.26p pd=1.52u as=0.26p ps=1.52u w=1u l=0.28u
.ends

* NGSPICE file created from gf180mcu_as_sc_mcu7t3v3__aoi21_4.ext - technology: gf180mcuD

.subckt gf180mcu_as_sc_mcu7t3v3__aoi21_4 VDD VNW VPW VSS Y C B A
X_M0 Y A a_812_68# VPW nfet_03v3 ad=0.26p pd=1.52u as=0.26p ps=1.52u w=1u l=0.28u
X_M1 a_28_440# C Y VNW pfet_03v3 ad=0.3588p pd=1.9u as=0.3588p ps=1.9u w=1.38u l=0.28u
X_M2 VDD B a_28_440# VNW pfet_03v3 ad=0.3588p pd=1.9u as=0.3588p ps=1.9u w=1.38u l=0.28u
X_M3 Y C VSS VPW nfet_03v3 ad=0.26p pd=1.52u as=0.44p ps=2.88u w=1u l=0.28u
X_M4 VSS B a_812_68# VPW nfet_03v3 ad=0.26p pd=1.52u as=0.26p ps=1.52u w=1u l=0.28u
X_M5 a_28_440# A VDD VNW pfet_03v3 ad=0.3588p pd=1.9u as=0.3588p ps=1.9u w=1.38u l=0.28u
X_M6 VDD B a_28_440# VNW pfet_03v3 ad=0.3588p pd=1.9u as=0.3588p ps=1.9u w=1.38u l=0.28u
X_M7 a_812_68# B VSS VPW nfet_03v3 ad=0.26p pd=1.52u as=0.26p ps=1.52u w=1u l=0.28u
X_M8 VDD A a_28_440# VNW pfet_03v3 ad=0.3588p pd=1.9u as=0.3588p ps=1.9u w=1.38u l=0.28u
X_M9 a_28_440# B VDD VNW pfet_03v3 ad=0.6348p pd=3.68u as=0.3588p ps=1.9u w=1.38u l=0.28u
X_M10 a_812_68# A Y VPW nfet_03v3 ad=0.26p pd=1.52u as=0.26p ps=1.52u w=1u l=0.28u
X_M11 Y C a_28_440# VNW pfet_03v3 ad=0.3588p pd=1.9u as=0.3588p ps=1.9u w=1.38u l=0.28u
X_M12 a_28_440# A VDD VNW pfet_03v3 ad=0.3588p pd=1.9u as=0.3588p ps=1.9u w=1.38u l=0.28u
X_M13 VSS C Y VPW nfet_03v3 ad=0.26p pd=1.52u as=0.26p ps=1.52u w=1u l=0.28u
X_M14 Y A a_812_68# VPW nfet_03v3 ad=0.26p pd=1.52u as=0.26p ps=1.52u w=1u l=0.28u
X_M15 a_28_440# C Y VNW pfet_03v3 ad=0.3588p pd=1.9u as=0.3588p ps=1.9u w=1.38u l=0.28u
X_M16 Y C VSS VPW nfet_03v3 ad=0.26p pd=1.52u as=0.26p ps=1.52u w=1u l=0.28u
X_M17 VSS B a_812_68# VPW nfet_03v3 ad=0.46p pd=2.92u as=0.26p ps=1.52u w=1u l=0.28u
X_M18 VDD A a_28_440# VNW pfet_03v3 ad=0.3588p pd=1.9u as=0.3588p ps=1.9u w=1.38u l=0.28u
X_M19 a_28_440# B VDD VNW pfet_03v3 ad=0.3588p pd=1.9u as=0.3588p ps=1.9u w=1.38u l=0.28u
X_M20 a_812_68# A Y VPW nfet_03v3 ad=0.26p pd=1.52u as=0.26p ps=1.52u w=1u l=0.28u
X_M21 Y C a_28_440# VNW pfet_03v3 ad=0.3588p pd=1.9u as=0.6072p ps=3.64u w=1.38u l=0.28u
X_M22 VSS C Y VPW nfet_03v3 ad=0.26p pd=1.52u as=0.26p ps=1.52u w=1u l=0.28u
X_M23 a_812_68# B VSS VPW nfet_03v3 ad=0.26p pd=1.52u as=0.26p ps=1.52u w=1u l=0.28u
.ends

* NGSPICE file created from gf180mcu_as_sc_mcu7t3v3__aoi21b_2.ext - technology: gf180mcuD

.subckt gf180mcu_as_sc_mcu7t3v3__aoi21b_2 VDD VNW VPW VSS Y C B A
X_M0 a_364_440# C Y VNW pfet_03v3 ad=0.621p pd=3.66u as=0.3588p ps=1.9u w=1.38u l=0.28u
X_M1 Y B a_508_68# VPW nfet_03v3 ad=0.26p pd=1.52u as=0.26p ps=1.52u w=1u l=0.28u
X_M2 VSS C Y VPW nfet_03v3 ad=0.45p pd=2.9u as=0.26p ps=1.52u w=1u l=0.28u
X_M3 a_220_68# A VSS VPW nfet_03v3 ad=0.44p pd=2.88u as=0.47p ps=2.94u w=1u l=0.28u
X_M4 a_508_68# a_220_68# VSS VPW nfet_03v3 ad=0.26p pd=1.52u as=0.44p ps=2.88u w=1u l=0.28u
X_M5 a_220_68# A VDD VNW pfet_03v3 ad=0.6072p pd=3.64u as=0.6348p ps=3.68u w=1.38u l=0.28u
X_M6 VDD a_220_68# a_364_440# VNW pfet_03v3 ad=0.3588p pd=1.9u as=0.6072p ps=3.64u w=1.38u l=0.28u
X_M7 a_364_440# a_220_68# VDD VNW pfet_03v3 ad=0.3588p pd=1.9u as=0.3588p ps=1.9u w=1.38u l=0.28u
X_M8 Y C VSS VPW nfet_03v3 ad=0.26p pd=1.52u as=0.26p ps=1.52u w=1u l=0.28u
X_M9 Y C a_364_440# VNW pfet_03v3 ad=0.3588p pd=1.9u as=0.3588p ps=1.9u w=1.38u l=0.28u
X_M10 VSS a_220_68# a_828_68# VPW nfet_03v3 ad=0.26p pd=1.52u as=0.26p ps=1.52u w=1u l=0.28u
X_M11 a_364_440# B VDD VNW pfet_03v3 ad=0.3588p pd=1.9u as=0.3588p ps=1.9u w=1.38u l=0.28u
X_M12 a_828_68# B Y VPW nfet_03v3 ad=0.26p pd=1.52u as=0.26p ps=1.52u w=1u l=0.28u
X_M13 VDD B a_364_440# VNW pfet_03v3 ad=0.3588p pd=1.9u as=0.3588p ps=1.9u w=1.38u l=0.28u
.ends

* NGSPICE file created from gf180mcu_as_sc_mcu7t3v3__aoi21b_4.ext - technology: gf180mcuD

.subckt gf180mcu_as_sc_mcu7t3v3__aoi21b_4 VDD VNW VPW VSS Y C A B
X_M0 VSS A a_713_318# VPW nfet_03v3 ad=0.44p pd=2.88u as=0.44p ps=2.88u w=1u l=0.28u
X_M1 Y B a_812_68# VPW nfet_03v3 ad=0.26p pd=1.52u as=0.26p ps=1.52u w=1u l=0.28u
X_M2 a_28_440# C Y VNW pfet_03v3 ad=0.3588p pd=1.9u as=0.3588p ps=1.9u w=1.38u l=0.28u
X_M3 VDD a_713_318# a_28_440# VNW pfet_03v3 ad=0.3588p pd=1.9u as=0.3588p ps=1.9u w=1.38u l=0.28u
X_M4 Y C VSS VPW nfet_03v3 ad=0.26p pd=1.52u as=0.44p ps=2.88u w=1u l=0.28u
X_M5 VSS a_713_318# a_812_68# VPW nfet_03v3 ad=0.26p pd=1.52u as=0.26p ps=1.52u w=1u l=0.28u
X_M6 a_28_440# B VDD VNW pfet_03v3 ad=0.3588p pd=1.9u as=0.3588p ps=1.9u w=1.38u l=0.28u
X_M7 VDD a_713_318# a_28_440# VNW pfet_03v3 ad=0.3588p pd=1.9u as=0.3588p ps=1.9u w=1.38u l=0.28u
X_M8 a_812_68# a_713_318# VSS VPW nfet_03v3 ad=0.26p pd=1.52u as=0.26p ps=1.52u w=1u l=0.28u
X_M9 VDD B a_28_440# VNW pfet_03v3 ad=0.3588p pd=1.9u as=0.3588p ps=1.9u w=1.38u l=0.28u
X_M10 a_28_440# a_713_318# VDD VNW pfet_03v3 ad=0.6348p pd=3.68u as=0.3588p ps=1.9u w=1.38u l=0.28u
X_M11 a_812_68# B Y VPW nfet_03v3 ad=0.26p pd=1.52u as=0.26p ps=1.52u w=1u l=0.28u
X_M12 Y C a_28_440# VNW pfet_03v3 ad=0.3588p pd=1.9u as=0.3588p ps=1.9u w=1.38u l=0.28u
X_M13 a_28_440# B VDD VNW pfet_03v3 ad=0.3588p pd=1.9u as=0.3588p ps=1.9u w=1.38u l=0.28u
X_M14 VSS C Y VPW nfet_03v3 ad=0.26p pd=1.52u as=0.26p ps=1.52u w=1u l=0.28u
X_M15 Y B a_812_68# VPW nfet_03v3 ad=0.26p pd=1.52u as=0.26p ps=1.52u w=1u l=0.28u
X_M16 a_28_440# C Y VNW pfet_03v3 ad=0.3588p pd=1.9u as=0.3588p ps=1.9u w=1.38u l=0.28u
X_M17 Y C VSS VPW nfet_03v3 ad=0.26p pd=1.52u as=0.26p ps=1.52u w=1u l=0.28u
X_M18 VSS a_713_318# a_812_68# VPW nfet_03v3 ad=0.46p pd=2.92u as=0.26p ps=1.52u w=1u l=0.28u
X_M19 VDD B a_28_440# VNW pfet_03v3 ad=0.3588p pd=1.9u as=0.3588p ps=1.9u w=1.38u l=0.28u
X_M20 a_28_440# a_713_318# VDD VNW pfet_03v3 ad=0.3588p pd=1.9u as=0.3588p ps=1.9u w=1.38u l=0.28u
X_M21 a_812_68# B Y VPW nfet_03v3 ad=0.26p pd=1.52u as=0.26p ps=1.52u w=1u l=0.28u
X_M22 VDD A a_713_318# VNW pfet_03v3 ad=0.6072p pd=3.64u as=0.6072p ps=3.64u w=1.38u l=0.28u
X_M23 Y C a_28_440# VNW pfet_03v3 ad=0.3588p pd=1.9u as=0.6072p ps=3.64u w=1.38u l=0.28u
X_M24 VSS C Y VPW nfet_03v3 ad=0.26p pd=1.52u as=0.26p ps=1.52u w=1u l=0.28u
X_M25 a_812_68# a_713_318# VSS VPW nfet_03v3 ad=0.26p pd=1.52u as=0.26p ps=1.52u w=1u l=0.28u
.ends

* NGSPICE file created from gf180mcu_as_sc_mcu7t3v3__aoi22_2.ext - technology: gf180mcuD

.subckt gf180mcu_as_sc_mcu7t3v3__aoi22_2 VDD VNW VPW VSS Y A B C D
X_M0 a_172_440# D VDD VNW pfet_03v3 ad=0.7797p pd=3.89u as=0.3588p ps=1.9u w=1.38u l=0.28u
X_M1 Y A a_172_440# VNW pfet_03v3 ad=0.3588p pd=1.9u as=0.3588p ps=1.9u w=1.38u l=0.28u
X_M2 VSS A a_28_68# VPW nfet_03v3 ad=0.26p pd=1.52u as=0.44p ps=2.88u w=1u l=0.28u
X_M3 a_803_68# D VSS VPW nfet_03v3 ad=0.565p pd=3.13u as=0.26p ps=1.52u w=1u l=0.28u
X_M4 a_172_440# C VDD VNW pfet_03v3 ad=0.3588p pd=1.9u as=0.3588p ps=1.9u w=1.38u l=0.28u
X_M5 VSS D a_803_68# VPW nfet_03v3 ad=0.26p pd=1.52u as=0.26p ps=1.52u w=1u l=0.28u
X_M6 a_172_440# B Y VNW pfet_03v3 ad=0.3588p pd=1.9u as=0.3588p ps=1.9u w=1.38u l=0.28u
X_M7 a_28_68# B Y VPW nfet_03v3 ad=0.44p pd=2.88u as=0.26p ps=1.52u w=1u l=0.28u
X_M8 a_803_68# C Y VPW nfet_03v3 ad=0.26p pd=1.52u as=0.26p ps=1.52u w=1u l=0.28u
X_M9 Y B a_172_440# VNW pfet_03v3 ad=0.6072p pd=3.64u as=0.3588p ps=1.9u w=1.38u l=0.28u
X_M10 Y B a_28_68# VPW nfet_03v3 ad=0.26p pd=1.52u as=0.26p ps=1.52u w=1u l=0.28u
X_M11 VDD D a_172_440# VNW pfet_03v3 ad=0.3588p pd=1.9u as=0.3588p ps=1.9u w=1.38u l=0.28u
X_M12 VDD C a_172_440# VNW pfet_03v3 ad=0.3588p pd=1.9u as=0.6072p ps=3.64u w=1.38u l=0.28u
X_M13 a_172_440# A Y VNW pfet_03v3 ad=0.3588p pd=1.9u as=0.6072p ps=3.64u w=1.38u l=0.28u